&NAMCT0
/
&NAMAATESTPROG
  NSMAX=1799,
  NDGLG=3600,
  NFLEVG=120,
  NFLDUA=1,
  NFLDSU=1,
/
&NAMTRANS
/
&NAMPAR0
/
&NAMPAR1
/ 
&NAMRGRI
   NRGRI(   1)=  18,
   NRGRI(   2)=  25,
   NRGRI(   3)=  32,
   NRGRI(   4)=  40,
   NRGRI(   5)=  45,
   NRGRI(   6)=  54,
   NRGRI(   7)=  60,
   NRGRI(   8)=  64,
   NRGRI(   9)=  75,
   NRGRI(  10)=  80,
   NRGRI(  11)=  90,
   NRGRI(  12)=  96,
   NRGRI(  13)= 100,
   NRGRI(  14)= 108,
   NRGRI(  15)= 120,
   NRGRI(  16)= 125,
   NRGRI(  17)= 128,
   NRGRI(  18)= 135,
   NRGRI(  19)= 144,
   NRGRI(  20)= 150,
   NRGRI(  21)= 160,
   NRGRI(  22)= 160,
   NRGRI(  23)= 180,
   NRGRI(  24)= 180,
   NRGRI(  25)= 192,
   NRGRI(  26)= 192,
   NRGRI(  27)= 200,
   NRGRI(  28)= 216,
   NRGRI(  29)= 216,
   NRGRI(  30)= 216,
   NRGRI(  31)= 225,
   NRGRI(  32)= 240,
   NRGRI(  33)= 240,
   NRGRI(  34)= 243,
   NRGRI(  35)= 250,
   NRGRI(  36)= 256,
   NRGRI(  37)= 270,
   NRGRI(  38)= 270,
   NRGRI(  39)= 288,
   NRGRI(  40)= 288,
   NRGRI(  41)= 288,
   NRGRI(  42)= 300,
   NRGRI(  43)= 320,
   NRGRI(  44)= 320,
   NRGRI(  45)= 320,
   NRGRI(  46)= 320,
   NRGRI(  47)= 360,
   NRGRI(  48)= 360,
   NRGRI(  49)= 360,
   NRGRI(  50)= 360,
   NRGRI(  51)= 360,
   NRGRI(  52)= 360,
   NRGRI(  53)= 375,
   NRGRI(  54)= 375,
   NRGRI(  55)= 384,
   NRGRI(  56)= 400,
   NRGRI(  57)= 400,
   NRGRI(  58)= 400,
   NRGRI(  59)= 432,
   NRGRI(  60)= 432,
   NRGRI(  61)= 432,
   NRGRI(  62)= 432,
   NRGRI(  63)= 432,
   NRGRI(  64)= 450,
   NRGRI(  65)= 450,
   NRGRI(  66)= 480,
   NRGRI(  67)= 480,
   NRGRI(  68)= 480,
   NRGRI(  69)= 480,
   NRGRI(  70)= 480,
   NRGRI(  71)= 486,
   NRGRI(  72)= 500,
   NRGRI(  73)= 500,
   NRGRI(  74)= 512,
   NRGRI(  75)= 512,
   NRGRI(  76)= 540,
   NRGRI(  77)= 540,
   NRGRI(  78)= 540,
   NRGRI(  79)= 540,
   NRGRI(  80)= 576,
   NRGRI(  81)= 576,
   NRGRI(  82)= 576,
   NRGRI(  83)= 576,
   NRGRI(  84)= 576,
   NRGRI(  85)= 576,
   NRGRI(  86)= 600,
   NRGRI(  87)= 600,
   NRGRI(  88)= 600,
   NRGRI(  89)= 600,
   NRGRI(  90)= 625,
   NRGRI(  91)= 625,
   NRGRI(  92)= 625,
   NRGRI(  93)= 625,
   NRGRI(  94)= 640,
   NRGRI(  95)= 640,
   NRGRI(  96)= 648,
   NRGRI(  97)= 675,
   NRGRI(  98)= 675,
   NRGRI(  99)= 675,
   NRGRI( 100)= 675,
   NRGRI( 101)= 720,
   NRGRI( 102)= 720,
   NRGRI( 103)= 720,
   NRGRI( 104)= 720,
   NRGRI( 105)= 720,
   NRGRI( 106)= 720,
   NRGRI( 107)= 720,
   NRGRI( 108)= 729,
   NRGRI( 109)= 729,
   NRGRI( 110)= 750,
   NRGRI( 111)= 750,
   NRGRI( 112)= 750,
   NRGRI( 113)= 768,
   NRGRI( 114)= 768,
   NRGRI( 115)= 768,
   NRGRI( 116)= 800,
   NRGRI( 117)= 800,
   NRGRI( 118)= 800,
   NRGRI( 119)= 800,
   NRGRI( 120)= 800,
   NRGRI( 121)= 810,
   NRGRI( 122)= 864,
   NRGRI( 123)= 864,
   NRGRI( 124)= 864,
   NRGRI( 125)= 864,
   NRGRI( 126)= 864,
   NRGRI( 127)= 864,
   NRGRI( 128)= 864,
   NRGRI( 129)= 864,
   NRGRI( 130)= 864,
   NRGRI( 131)= 900,
   NRGRI( 132)= 900,
   NRGRI( 133)= 900,
   NRGRI( 134)= 900,
   NRGRI( 135)= 900,
   NRGRI( 136)= 960,
   NRGRI( 137)= 960,
   NRGRI( 138)= 960,
   NRGRI( 139)= 960,
   NRGRI( 140)= 960,
   NRGRI( 141)= 960,
   NRGRI( 142)= 960,
   NRGRI( 143)= 960,
   NRGRI( 144)= 960,
   NRGRI( 145)= 960,
   NRGRI( 146)= 972,
   NRGRI( 147)= 972,
   NRGRI( 148)=1000,
   NRGRI( 149)=1000,
   NRGRI( 150)=1000,
   NRGRI( 151)=1000,
   NRGRI( 152)=1024,
   NRGRI( 153)=1024,
   NRGRI( 154)=1024,
   NRGRI( 155)=1024,
   NRGRI( 156)=1080,
   NRGRI( 157)=1080,
   NRGRI( 158)=1080,
   NRGRI( 159)=1080,
   NRGRI( 160)=1080,
   NRGRI( 161)=1080,
   NRGRI( 162)=1080,
   NRGRI( 163)=1080,
   NRGRI( 164)=1080,
   NRGRI( 165)=1125,
   NRGRI( 166)=1125,
   NRGRI( 167)=1125,
   NRGRI( 168)=1125,
   NRGRI( 169)=1125,
   NRGRI( 170)=1125,
   NRGRI( 171)=1125,
   NRGRI( 172)=1152,
   NRGRI( 173)=1152,
   NRGRI( 174)=1152,
   NRGRI( 175)=1152,
   NRGRI( 176)=1200,
   NRGRI( 177)=1200,
   NRGRI( 178)=1200,
   NRGRI( 179)=1200,
   NRGRI( 180)=1200,
   NRGRI( 181)=1200,
   NRGRI( 182)=1200,
   NRGRI( 183)=1200,
   NRGRI( 184)=1215,
   NRGRI( 185)=1215,
   NRGRI( 186)=1250,
   NRGRI( 187)=1250,
   NRGRI( 188)=1250,
   NRGRI( 189)=1250,
   NRGRI( 190)=1250,
   NRGRI( 191)=1250,
   NRGRI( 192)=1280,
   NRGRI( 193)=1280,
   NRGRI( 194)=1280,
   NRGRI( 195)=1280,
   NRGRI( 196)=1296,
   NRGRI( 197)=1296,
   NRGRI( 198)=1296,
   NRGRI( 199)=1350,
   NRGRI( 200)=1350,
   NRGRI( 201)=1350,
   NRGRI( 202)=1350,
   NRGRI( 203)=1350,
   NRGRI( 204)=1350,
   NRGRI( 205)=1350,
   NRGRI( 206)=1350,
   NRGRI( 207)=1440,
   NRGRI( 208)=1440,
   NRGRI( 209)=1440,
   NRGRI( 210)=1440,
   NRGRI( 211)=1440,
   NRGRI( 212)=1440,
   NRGRI( 213)=1440,
   NRGRI( 214)=1440,
   NRGRI( 215)=1440,
   NRGRI( 216)=1440,
   NRGRI( 217)=1440,
   NRGRI( 218)=1440,
   NRGRI( 219)=1440,
   NRGRI( 220)=1440,
   NRGRI( 221)=1440,
   NRGRI( 222)=1458,
   NRGRI( 223)=1458,
   NRGRI( 224)=1458,
   NRGRI( 225)=1500,
   NRGRI( 226)=1500,
   NRGRI( 227)=1500,
   NRGRI( 228)=1500,
   NRGRI( 229)=1500,
   NRGRI( 230)=1500,
   NRGRI( 231)=1536,
   NRGRI( 232)=1536,
   NRGRI( 233)=1536,
   NRGRI( 234)=1536,
   NRGRI( 235)=1536,
   NRGRI( 236)=1536,
   NRGRI( 237)=1600,
   NRGRI( 238)=1600,
   NRGRI( 239)=1600,
   NRGRI( 240)=1600,
   NRGRI( 241)=1600,
   NRGRI( 242)=1600,
   NRGRI( 243)=1600,
   NRGRI( 244)=1600,
   NRGRI( 245)=1600,
   NRGRI( 246)=1600,
   NRGRI( 247)=1600,
   NRGRI( 248)=1620,
   NRGRI( 249)=1620,
   NRGRI( 250)=1728,
   NRGRI( 251)=1728,
   NRGRI( 252)=1728,
   NRGRI( 253)=1728,
   NRGRI( 254)=1728,
   NRGRI( 255)=1728,
   NRGRI( 256)=1728,
   NRGRI( 257)=1728,
   NRGRI( 258)=1728,
   NRGRI( 259)=1728,
   NRGRI( 260)=1728,
   NRGRI( 261)=1728,
   NRGRI( 262)=1728,
   NRGRI( 263)=1728,
   NRGRI( 264)=1728,
   NRGRI( 265)=1728,
   NRGRI( 266)=1728,
   NRGRI( 267)=1728,
   NRGRI( 268)=1800,
   NRGRI( 269)=1800,
   NRGRI( 270)=1800,
   NRGRI( 271)=1800,
   NRGRI( 272)=1800,
   NRGRI( 273)=1800,
   NRGRI( 274)=1800,
   NRGRI( 275)=1800,
   NRGRI( 276)=1800,
   NRGRI( 277)=1800,
   NRGRI( 278)=1800,
   NRGRI( 279)=1875,
   NRGRI( 280)=1875,
   NRGRI( 281)=1875,
   NRGRI( 282)=1875,
   NRGRI( 283)=1875,
   NRGRI( 284)=1875,
   NRGRI( 285)=1875,
   NRGRI( 286)=1875,
   NRGRI( 287)=1875,
   NRGRI( 288)=1875,
   NRGRI( 289)=1875,
   NRGRI( 290)=1875,
   NRGRI( 291)=1875,
   NRGRI( 292)=1920,
   NRGRI( 293)=1920,
   NRGRI( 294)=1920,
   NRGRI( 295)=1920,
   NRGRI( 296)=1920,
   NRGRI( 297)=1920,
   NRGRI( 298)=1920,
   NRGRI( 299)=1944,
   NRGRI( 300)=1944,
   NRGRI( 301)=1944,
   NRGRI( 302)=1944,
   NRGRI( 303)=2000,
   NRGRI( 304)=2000,
   NRGRI( 305)=2000,
   NRGRI( 306)=2000,
   NRGRI( 307)=2000,
   NRGRI( 308)=2000,
   NRGRI( 309)=2000,
   NRGRI( 310)=2000,
   NRGRI( 311)=2000,
   NRGRI( 312)=2025,
   NRGRI( 313)=2025,
   NRGRI( 314)=2025,
   NRGRI( 315)=2025,
   NRGRI( 316)=2048,
   NRGRI( 317)=2048,
   NRGRI( 318)=2048,
   NRGRI( 319)=2048,
   NRGRI( 320)=2160,
   NRGRI( 321)=2160,
   NRGRI( 322)=2160,
   NRGRI( 323)=2160,
   NRGRI( 324)=2160,
   NRGRI( 325)=2160,
   NRGRI( 326)=2160,
   NRGRI( 327)=2160,
   NRGRI( 328)=2160,
   NRGRI( 329)=2160,
   NRGRI( 330)=2160,
   NRGRI( 331)=2160,
   NRGRI( 332)=2160,
   NRGRI( 333)=2160,
   NRGRI( 334)=2160,
   NRGRI( 335)=2160,
   NRGRI( 336)=2160,
   NRGRI( 337)=2160,
   NRGRI( 338)=2187,
   NRGRI( 339)=2187,
   NRGRI( 340)=2187,
   NRGRI( 341)=2187,
   NRGRI( 342)=2187,
   NRGRI( 343)=2250,
   NRGRI( 344)=2250,
   NRGRI( 345)=2250,
   NRGRI( 346)=2250,
   NRGRI( 347)=2250,
   NRGRI( 348)=2250,
   NRGRI( 349)=2250,
   NRGRI( 350)=2250,
   NRGRI( 351)=2250,
   NRGRI( 352)=2250,
   NRGRI( 353)=2304,
   NRGRI( 354)=2304,
   NRGRI( 355)=2304,
   NRGRI( 356)=2304,
   NRGRI( 357)=2304,
   NRGRI( 358)=2304,
   NRGRI( 359)=2304,
   NRGRI( 360)=2304,
   NRGRI( 361)=2304,
   NRGRI( 362)=2400,
   NRGRI( 363)=2400,
   NRGRI( 364)=2400,
   NRGRI( 365)=2400,
   NRGRI( 366)=2400,
   NRGRI( 367)=2400,
   NRGRI( 368)=2400,
   NRGRI( 369)=2400,
   NRGRI( 370)=2400,
   NRGRI( 371)=2400,
   NRGRI( 372)=2400,
   NRGRI( 373)=2400,
   NRGRI( 374)=2400,
   NRGRI( 375)=2400,
   NRGRI( 376)=2400,
   NRGRI( 377)=2400,
   NRGRI( 378)=2430,
   NRGRI( 379)=2430,
   NRGRI( 380)=2430,
   NRGRI( 381)=2430,
   NRGRI( 382)=2430,
   NRGRI( 383)=2500,
   NRGRI( 384)=2500,
   NRGRI( 385)=2500,
   NRGRI( 386)=2500,
   NRGRI( 387)=2500,
   NRGRI( 388)=2500,
   NRGRI( 389)=2500,
   NRGRI( 390)=2500,
   NRGRI( 391)=2500,
   NRGRI( 392)=2500,
   NRGRI( 393)=2500,
   NRGRI( 394)=2500,
   NRGRI( 395)=2560,
   NRGRI( 396)=2560,
   NRGRI( 397)=2560,
   NRGRI( 398)=2560,
   NRGRI( 399)=2560,
   NRGRI( 400)=2560,
   NRGRI( 401)=2560,
   NRGRI( 402)=2560,
   NRGRI( 403)=2560,
   NRGRI( 404)=2560,
   NRGRI( 405)=2592,
   NRGRI( 406)=2592,
   NRGRI( 407)=2592,
   NRGRI( 408)=2592,
   NRGRI( 409)=2592,
   NRGRI( 410)=2700,
   NRGRI( 411)=2700,
   NRGRI( 412)=2700,
   NRGRI( 413)=2700,
   NRGRI( 414)=2700,
   NRGRI( 415)=2700,
   NRGRI( 416)=2700,
   NRGRI( 417)=2700,
   NRGRI( 418)=2700,
   NRGRI( 419)=2700,
   NRGRI( 420)=2700,
   NRGRI( 421)=2700,
   NRGRI( 422)=2700,
   NRGRI( 423)=2700,
   NRGRI( 424)=2700,
   NRGRI( 425)=2700,
   NRGRI( 426)=2700,
   NRGRI( 427)=2700,
   NRGRI( 428)=2880,
   NRGRI( 429)=2880,
   NRGRI( 430)=2880,
   NRGRI( 431)=2880,
   NRGRI( 432)=2880,
   NRGRI( 433)=2880,
   NRGRI( 434)=2880,
   NRGRI( 435)=2880,
   NRGRI( 436)=2880,
   NRGRI( 437)=2880,
   NRGRI( 438)=2880,
   NRGRI( 439)=2880,
   NRGRI( 440)=2880,
   NRGRI( 441)=2880,
   NRGRI( 442)=2880,
   NRGRI( 443)=2880,
   NRGRI( 444)=2880,
   NRGRI( 445)=2880,
   NRGRI( 446)=2880,
   NRGRI( 447)=2880,
   NRGRI( 448)=2880,
   NRGRI( 449)=2880,
   NRGRI( 450)=2880,
   NRGRI( 451)=2880,
   NRGRI( 452)=2880,
   NRGRI( 453)=2880,
   NRGRI( 454)=2880,
   NRGRI( 455)=2880,
   NRGRI( 456)=2880,
   NRGRI( 457)=2880,
   NRGRI( 458)=2880,
   NRGRI( 459)=2916,
   NRGRI( 460)=2916,
   NRGRI( 461)=2916,
   NRGRI( 462)=2916,
   NRGRI( 463)=2916,
   NRGRI( 464)=2916,
   NRGRI( 465)=3000,
   NRGRI( 466)=3000,
   NRGRI( 467)=3000,
   NRGRI( 468)=3000,
   NRGRI( 469)=3000,
   NRGRI( 470)=3000,
   NRGRI( 471)=3000,
   NRGRI( 472)=3000,
   NRGRI( 473)=3000,
   NRGRI( 474)=3000,
   NRGRI( 475)=3000,
   NRGRI( 476)=3000,
   NRGRI( 477)=3000,
   NRGRI( 478)=3000,
   NRGRI( 479)=3000,
   NRGRI( 480)=3072,
   NRGRI( 481)=3072,
   NRGRI( 482)=3072,
   NRGRI( 483)=3072,
   NRGRI( 484)=3072,
   NRGRI( 485)=3072,
   NRGRI( 486)=3072,
   NRGRI( 487)=3072,
   NRGRI( 488)=3072,
   NRGRI( 489)=3072,
   NRGRI( 490)=3072,
   NRGRI( 491)=3072,
   NRGRI( 492)=3125,
   NRGRI( 493)=3125,
   NRGRI( 494)=3125,
   NRGRI( 495)=3125,
   NRGRI( 496)=3125,
   NRGRI( 497)=3125,
   NRGRI( 498)=3125,
   NRGRI( 499)=3125,
   NRGRI( 500)=3125,
   NRGRI( 501)=3200,
   NRGRI( 502)=3200,
   NRGRI( 503)=3200,
   NRGRI( 504)=3200,
   NRGRI( 505)=3200,
   NRGRI( 506)=3200,
   NRGRI( 507)=3200,
   NRGRI( 508)=3200,
   NRGRI( 509)=3200,
   NRGRI( 510)=3200,
   NRGRI( 511)=3200,
   NRGRI( 512)=3200,
   NRGRI( 513)=3200,
   NRGRI( 514)=3200,
   NRGRI( 515)=3240,
   NRGRI( 516)=3240,
   NRGRI( 517)=3240,
   NRGRI( 518)=3240,
   NRGRI( 519)=3240,
   NRGRI( 520)=3240,
   NRGRI( 521)=3375,
   NRGRI( 522)=3375,
   NRGRI( 523)=3375,
   NRGRI( 524)=3375,
   NRGRI( 525)=3375,
   NRGRI( 526)=3375,
   NRGRI( 527)=3375,
   NRGRI( 528)=3375,
   NRGRI( 529)=3375,
   NRGRI( 530)=3375,
   NRGRI( 531)=3375,
   NRGRI( 532)=3375,
   NRGRI( 533)=3375,
   NRGRI( 534)=3375,
   NRGRI( 535)=3375,
   NRGRI( 536)=3375,
   NRGRI( 537)=3375,
   NRGRI( 538)=3375,
   NRGRI( 539)=3375,
   NRGRI( 540)=3375,
   NRGRI( 541)=3375,
   NRGRI( 542)=3375,
   NRGRI( 543)=3375,
   NRGRI( 544)=3375,
   NRGRI( 545)=3456,
   NRGRI( 546)=3456,
   NRGRI( 547)=3456,
   NRGRI( 548)=3456,
   NRGRI( 549)=3456,
   NRGRI( 550)=3456,
   NRGRI( 551)=3456,
   NRGRI( 552)=3456,
   NRGRI( 553)=3456,
   NRGRI( 554)=3456,
   NRGRI( 555)=3456,
   NRGRI( 556)=3456,
   NRGRI( 557)=3456,
   NRGRI( 558)=3456,
   NRGRI( 559)=3456,
   NRGRI( 560)=3600,
   NRGRI( 561)=3600,
   NRGRI( 562)=3600,
   NRGRI( 563)=3600,
   NRGRI( 564)=3600,
   NRGRI( 565)=3600,
   NRGRI( 566)=3600,
   NRGRI( 567)=3600,
   NRGRI( 568)=3600,
   NRGRI( 569)=3600,
   NRGRI( 570)=3600,
   NRGRI( 571)=3600,
   NRGRI( 572)=3600,
   NRGRI( 573)=3600,
   NRGRI( 574)=3600,
   NRGRI( 575)=3600,
   NRGRI( 576)=3600,
   NRGRI( 577)=3600,
   NRGRI( 578)=3600,
   NRGRI( 579)=3600,
   NRGRI( 580)=3600,
   NRGRI( 581)=3600,
   NRGRI( 582)=3600,
   NRGRI( 583)=3600,
   NRGRI( 584)=3600,
   NRGRI( 585)=3600,
   NRGRI( 586)=3645,
   NRGRI( 587)=3645,
   NRGRI( 588)=3645,
   NRGRI( 589)=3645,
   NRGRI( 590)=3645,
   NRGRI( 591)=3645,
   NRGRI( 592)=3645,
   NRGRI( 593)=3645,
   NRGRI( 594)=3750,
   NRGRI( 595)=3750,
   NRGRI( 596)=3750,
   NRGRI( 597)=3750,
   NRGRI( 598)=3750,
   NRGRI( 599)=3750,
   NRGRI( 600)=3750,
   NRGRI( 601)=3750,
   NRGRI( 602)=3750,
   NRGRI( 603)=3750,
   NRGRI( 604)=3750,
   NRGRI( 605)=3750,
   NRGRI( 606)=3750,
   NRGRI( 607)=3750,
   NRGRI( 608)=3750,
   NRGRI( 609)=3750,
   NRGRI( 610)=3750,
   NRGRI( 611)=3750,
   NRGRI( 612)=3750,
   NRGRI( 613)=3840,
   NRGRI( 614)=3840,
   NRGRI( 615)=3840,
   NRGRI( 616)=3840,
   NRGRI( 617)=3840,
   NRGRI( 618)=3840,
   NRGRI( 619)=3840,
   NRGRI( 620)=3840,
   NRGRI( 621)=3840,
   NRGRI( 622)=3840,
   NRGRI( 623)=3840,
   NRGRI( 624)=3840,
   NRGRI( 625)=3840,
   NRGRI( 626)=3840,
   NRGRI( 627)=3840,
   NRGRI( 628)=3840,
   NRGRI( 629)=3840,
   NRGRI( 630)=3888,
   NRGRI( 631)=3888,
   NRGRI( 632)=3888,
   NRGRI( 633)=3888,
   NRGRI( 634)=3888,
   NRGRI( 635)=3888,
   NRGRI( 636)=3888,
   NRGRI( 637)=3888,
   NRGRI( 638)=3888,
   NRGRI( 639)=4000,
   NRGRI( 640)=4000,
   NRGRI( 641)=4000,
   NRGRI( 642)=4000,
   NRGRI( 643)=4000,
   NRGRI( 644)=4000,
   NRGRI( 645)=4000,
   NRGRI( 646)=4000,
   NRGRI( 647)=4000,
   NRGRI( 648)=4000,
   NRGRI( 649)=4000,
   NRGRI( 650)=4000,
   NRGRI( 651)=4000,
   NRGRI( 652)=4000,
   NRGRI( 653)=4000,
   NRGRI( 654)=4000,
   NRGRI( 655)=4000,
   NRGRI( 656)=4000,
   NRGRI( 657)=4000,
   NRGRI( 658)=4000,
   NRGRI( 659)=4000,
   NRGRI( 660)=4050,
   NRGRI( 661)=4050,
   NRGRI( 662)=4050,
   NRGRI( 663)=4050,
   NRGRI( 664)=4050,
   NRGRI( 665)=4050,
   NRGRI( 666)=4050,
   NRGRI( 667)=4050,
   NRGRI( 668)=4050,
   NRGRI( 669)=4096,
   NRGRI( 670)=4096,
   NRGRI( 671)=4096,
   NRGRI( 672)=4096,
   NRGRI( 673)=4096,
   NRGRI( 674)=4096,
   NRGRI( 675)=4096,
   NRGRI( 676)=4096,
   NRGRI( 677)=4096,
   NRGRI( 678)=4320,
   NRGRI( 679)=4320,
   NRGRI( 680)=4320,
   NRGRI( 681)=4320,
   NRGRI( 682)=4320,
   NRGRI( 683)=4320,
   NRGRI( 684)=4320,
   NRGRI( 685)=4320,
   NRGRI( 686)=4320,
   NRGRI( 687)=4320,
   NRGRI( 688)=4320,
   NRGRI( 689)=4320,
   NRGRI( 690)=4320,
   NRGRI( 691)=4320,
   NRGRI( 692)=4320,
   NRGRI( 693)=4320,
   NRGRI( 694)=4320,
   NRGRI( 695)=4320,
   NRGRI( 696)=4320,
   NRGRI( 697)=4320,
   NRGRI( 698)=4320,
   NRGRI( 699)=4320,
   NRGRI( 700)=4320,
   NRGRI( 701)=4320,
   NRGRI( 702)=4320,
   NRGRI( 703)=4320,
   NRGRI( 704)=4320,
   NRGRI( 705)=4320,
   NRGRI( 706)=4320,
   NRGRI( 707)=4320,
   NRGRI( 708)=4320,
   NRGRI( 709)=4320,
   NRGRI( 710)=4320,
   NRGRI( 711)=4320,
   NRGRI( 712)=4320,
   NRGRI( 713)=4320,
   NRGRI( 714)=4320,
   NRGRI( 715)=4320,
   NRGRI( 716)=4320,
   NRGRI( 717)=4320,
   NRGRI( 718)=4320,
   NRGRI( 719)=4320,
   NRGRI( 720)=4320,
   NRGRI( 721)=4374,
   NRGRI( 722)=4374,
   NRGRI( 723)=4374,
   NRGRI( 724)=4374,
   NRGRI( 725)=4374,
   NRGRI( 726)=4374,
   NRGRI( 727)=4374,
   NRGRI( 728)=4374,
   NRGRI( 729)=4374,
   NRGRI( 730)=4374,
   NRGRI( 731)=4374,
   NRGRI( 732)=4500,
   NRGRI( 733)=4500,
   NRGRI( 734)=4500,
   NRGRI( 735)=4500,
   NRGRI( 736)=4500,
   NRGRI( 737)=4500,
   NRGRI( 738)=4500,
   NRGRI( 739)=4500,
   NRGRI( 740)=4500,
   NRGRI( 741)=4500,
   NRGRI( 742)=4500,
   NRGRI( 743)=4500,
   NRGRI( 744)=4500,
   NRGRI( 745)=4500,
   NRGRI( 746)=4500,
   NRGRI( 747)=4500,
   NRGRI( 748)=4500,
   NRGRI( 749)=4500,
   NRGRI( 750)=4500,
   NRGRI( 751)=4500,
   NRGRI( 752)=4500,
   NRGRI( 753)=4500,
   NRGRI( 754)=4500,
   NRGRI( 755)=4500,
   NRGRI( 756)=4500,
   NRGRI( 757)=4608,
   NRGRI( 758)=4608,
   NRGRI( 759)=4608,
   NRGRI( 760)=4608,
   NRGRI( 761)=4608,
   NRGRI( 762)=4608,
   NRGRI( 763)=4608,
   NRGRI( 764)=4608,
   NRGRI( 765)=4608,
   NRGRI( 766)=4608,
   NRGRI( 767)=4608,
   NRGRI( 768)=4608,
   NRGRI( 769)=4608,
   NRGRI( 770)=4608,
   NRGRI( 771)=4608,
   NRGRI( 772)=4608,
   NRGRI( 773)=4608,
   NRGRI( 774)=4608,
   NRGRI( 775)=4608,
   NRGRI( 776)=4608,
   NRGRI( 777)=4608,
   NRGRI( 778)=4608,
   NRGRI( 779)=4800,
   NRGRI( 780)=4800,
   NRGRI( 781)=4800,
   NRGRI( 782)=4800,
   NRGRI( 783)=4800,
   NRGRI( 784)=4800,
   NRGRI( 785)=4800,
   NRGRI( 786)=4800,
   NRGRI( 787)=4800,
   NRGRI( 788)=4800,
   NRGRI( 789)=4800,
   NRGRI( 790)=4800,
   NRGRI( 791)=4800,
   NRGRI( 792)=4800,
   NRGRI( 793)=4800,
   NRGRI( 794)=4800,
   NRGRI( 795)=4800,
   NRGRI( 796)=4800,
   NRGRI( 797)=4800,
   NRGRI( 798)=4800,
   NRGRI( 799)=4800,
   NRGRI( 800)=4800,
   NRGRI( 801)=4800,
   NRGRI( 802)=4800,
   NRGRI( 803)=4800,
   NRGRI( 804)=4800,
   NRGRI( 805)=4800,
   NRGRI( 806)=4800,
   NRGRI( 807)=4800,
   NRGRI( 808)=4800,
   NRGRI( 809)=4800,
   NRGRI( 810)=4800,
   NRGRI( 811)=4800,
   NRGRI( 812)=4800,
   NRGRI( 813)=4800,
   NRGRI( 814)=4800,
   NRGRI( 815)=4800,
   NRGRI( 816)=4800,
   NRGRI( 817)=4800,
   NRGRI( 818)=4800,
   NRGRI( 819)=4860,
   NRGRI( 820)=4860,
   NRGRI( 821)=4860,
   NRGRI( 822)=4860,
   NRGRI( 823)=4860,
   NRGRI( 824)=4860,
   NRGRI( 825)=4860,
   NRGRI( 826)=4860,
   NRGRI( 827)=4860,
   NRGRI( 828)=4860,
   NRGRI( 829)=4860,
   NRGRI( 830)=4860,
   NRGRI( 831)=4860,
   NRGRI( 832)=5000,
   NRGRI( 833)=5000,
   NRGRI( 834)=5000,
   NRGRI( 835)=5000,
   NRGRI( 836)=5000,
   NRGRI( 837)=5000,
   NRGRI( 838)=5000,
   NRGRI( 839)=5000,
   NRGRI( 840)=5000,
   NRGRI( 841)=5000,
   NRGRI( 842)=5000,
   NRGRI( 843)=5000,
   NRGRI( 844)=5000,
   NRGRI( 845)=5000,
   NRGRI( 846)=5000,
   NRGRI( 847)=5000,
   NRGRI( 848)=5000,
   NRGRI( 849)=5000,
   NRGRI( 850)=5000,
   NRGRI( 851)=5000,
   NRGRI( 852)=5000,
   NRGRI( 853)=5000,
   NRGRI( 854)=5000,
   NRGRI( 855)=5000,
   NRGRI( 856)=5000,
   NRGRI( 857)=5000,
   NRGRI( 858)=5000,
   NRGRI( 859)=5000,
   NRGRI( 860)=5000,
   NRGRI( 861)=5000,
   NRGRI( 862)=5120,
   NRGRI( 863)=5120,
   NRGRI( 864)=5120,
   NRGRI( 865)=5120,
   NRGRI( 866)=5120,
   NRGRI( 867)=5120,
   NRGRI( 868)=5120,
   NRGRI( 869)=5120,
   NRGRI( 870)=5120,
   NRGRI( 871)=5120,
   NRGRI( 872)=5120,
   NRGRI( 873)=5120,
   NRGRI( 874)=5120,
   NRGRI( 875)=5120,
   NRGRI( 876)=5120,
   NRGRI( 877)=5120,
   NRGRI( 878)=5120,
   NRGRI( 879)=5120,
   NRGRI( 880)=5120,
   NRGRI( 881)=5120,
   NRGRI( 882)=5120,
   NRGRI( 883)=5120,
   NRGRI( 884)=5120,
   NRGRI( 885)=5120,
   NRGRI( 886)=5120,
   NRGRI( 887)=5120,
   NRGRI( 888)=5120,
   NRGRI( 889)=5184,
   NRGRI( 890)=5184,
   NRGRI( 891)=5184,
   NRGRI( 892)=5184,
   NRGRI( 893)=5184,
   NRGRI( 894)=5184,
   NRGRI( 895)=5184,
   NRGRI( 896)=5184,
   NRGRI( 897)=5184,
   NRGRI( 898)=5184,
   NRGRI( 899)=5184,
   NRGRI( 900)=5184,
   NRGRI( 901)=5184,
   NRGRI( 902)=5184,
   NRGRI( 903)=5400,
   NRGRI( 904)=5400,
   NRGRI( 905)=5400,
   NRGRI( 906)=5400,
   NRGRI( 907)=5400,
   NRGRI( 908)=5400,
   NRGRI( 909)=5400,
   NRGRI( 910)=5400,
   NRGRI( 911)=5400,
   NRGRI( 912)=5400,
   NRGRI( 913)=5400,
   NRGRI( 914)=5400,
   NRGRI( 915)=5400,
   NRGRI( 916)=5400,
   NRGRI( 917)=5400,
   NRGRI( 918)=5400,
   NRGRI( 919)=5400,
   NRGRI( 920)=5400,
   NRGRI( 921)=5400,
   NRGRI( 922)=5400,
   NRGRI( 923)=5400,
   NRGRI( 924)=5400,
   NRGRI( 925)=5400,
   NRGRI( 926)=5400,
   NRGRI( 927)=5400,
   NRGRI( 928)=5400,
   NRGRI( 929)=5400,
   NRGRI( 930)=5400,
   NRGRI( 931)=5400,
   NRGRI( 932)=5400,
   NRGRI( 933)=5400,
   NRGRI( 934)=5400,
   NRGRI( 935)=5400,
   NRGRI( 936)=5400,
   NRGRI( 937)=5400,
   NRGRI( 938)=5400,
   NRGRI( 939)=5400,
   NRGRI( 940)=5400,
   NRGRI( 941)=5400,
   NRGRI( 942)=5400,
   NRGRI( 943)=5400,
   NRGRI( 944)=5400,
   NRGRI( 945)=5400,
   NRGRI( 946)=5400,
   NRGRI( 947)=5400,
   NRGRI( 948)=5400,
   NRGRI( 949)=5400,
   NRGRI( 950)=5400,
   NRGRI( 951)=5400,
   NRGRI( 952)=5400,
   NRGRI( 953)=5625,
   NRGRI( 954)=5625,
   NRGRI( 955)=5625,
   NRGRI( 956)=5625,
   NRGRI( 957)=5625,
   NRGRI( 958)=5625,
   NRGRI( 959)=5625,
   NRGRI( 960)=5625,
   NRGRI( 961)=5625,
   NRGRI( 962)=5625,
   NRGRI( 963)=5625,
   NRGRI( 964)=5625,
   NRGRI( 965)=5625,
   NRGRI( 966)=5625,
   NRGRI( 967)=5625,
   NRGRI( 968)=5625,
   NRGRI( 969)=5625,
   NRGRI( 970)=5625,
   NRGRI( 971)=5625,
   NRGRI( 972)=5625,
   NRGRI( 973)=5625,
   NRGRI( 974)=5625,
   NRGRI( 975)=5625,
   NRGRI( 976)=5625,
   NRGRI( 977)=5625,
   NRGRI( 978)=5625,
   NRGRI( 979)=5625,
   NRGRI( 980)=5625,
   NRGRI( 981)=5625,
   NRGRI( 982)=5625,
   NRGRI( 983)=5625,
   NRGRI( 984)=5625,
   NRGRI( 985)=5625,
   NRGRI( 986)=5625,
   NRGRI( 987)=5625,
   NRGRI( 988)=5625,
   NRGRI( 989)=5625,
   NRGRI( 990)=5625,
   NRGRI( 991)=5625,
   NRGRI( 992)=5625,
   NRGRI( 993)=5625,
   NRGRI( 994)=5625,
   NRGRI( 995)=5625,
   NRGRI( 996)=5625,
   NRGRI( 997)=5625,
   NRGRI( 998)=5625,
   NRGRI( 999)=5625,
   NRGRI(1000)=5625,
   NRGRI(1001)=5625,
   NRGRI(1002)=5625,
   NRGRI(1003)=5625,
   NRGRI(1004)=5625,
   NRGRI(1005)=5625,
   NRGRI(1006)=5625,
   NRGRI(1007)=5625,
   NRGRI(1008)=5760,
   NRGRI(1009)=5760,
   NRGRI(1010)=5760,
   NRGRI(1011)=5760,
   NRGRI(1012)=5760,
   NRGRI(1013)=5760,
   NRGRI(1014)=5760,
   NRGRI(1015)=5760,
   NRGRI(1016)=5760,
   NRGRI(1017)=5760,
   NRGRI(1018)=5760,
   NRGRI(1019)=5760,
   NRGRI(1020)=5760,
   NRGRI(1021)=5760,
   NRGRI(1022)=5760,
   NRGRI(1023)=5760,
   NRGRI(1024)=5760,
   NRGRI(1025)=5760,
   NRGRI(1026)=5760,
   NRGRI(1027)=5760,
   NRGRI(1028)=5760,
   NRGRI(1029)=5760,
   NRGRI(1030)=5760,
   NRGRI(1031)=5760,
   NRGRI(1032)=5760,
   NRGRI(1033)=5760,
   NRGRI(1034)=5760,
   NRGRI(1035)=5760,
   NRGRI(1036)=5760,
   NRGRI(1037)=5760,
   NRGRI(1038)=5760,
   NRGRI(1039)=5760,
   NRGRI(1040)=5760,
   NRGRI(1041)=5760,
   NRGRI(1042)=5832,
   NRGRI(1043)=5832,
   NRGRI(1044)=5832,
   NRGRI(1045)=5832,
   NRGRI(1046)=5832,
   NRGRI(1047)=5832,
   NRGRI(1048)=5832,
   NRGRI(1049)=5832,
   NRGRI(1050)=5832,
   NRGRI(1051)=5832,
   NRGRI(1052)=5832,
   NRGRI(1053)=5832,
   NRGRI(1054)=5832,
   NRGRI(1055)=5832,
   NRGRI(1056)=5832,
   NRGRI(1057)=5832,
   NRGRI(1058)=5832,
   NRGRI(1059)=5832,
   NRGRI(1060)=5832,
   NRGRI(1061)=6000,
   NRGRI(1062)=6000,
   NRGRI(1063)=6000,
   NRGRI(1064)=6000,
   NRGRI(1065)=6000,
   NRGRI(1066)=6000,
   NRGRI(1067)=6000,
   NRGRI(1068)=6000,
   NRGRI(1069)=6000,
   NRGRI(1070)=6000,
   NRGRI(1071)=6000,
   NRGRI(1072)=6000,
   NRGRI(1073)=6000,
   NRGRI(1074)=6000,
   NRGRI(1075)=6000,
   NRGRI(1076)=6000,
   NRGRI(1077)=6000,
   NRGRI(1078)=6000,
   NRGRI(1079)=6000,
   NRGRI(1080)=6000,
   NRGRI(1081)=6000,
   NRGRI(1082)=6000,
   NRGRI(1083)=6000,
   NRGRI(1084)=6000,
   NRGRI(1085)=6000,
   NRGRI(1086)=6000,
   NRGRI(1087)=6000,
   NRGRI(1088)=6000,
   NRGRI(1089)=6000,
   NRGRI(1090)=6000,
   NRGRI(1091)=6000,
   NRGRI(1092)=6000,
   NRGRI(1093)=6000,
   NRGRI(1094)=6000,
   NRGRI(1095)=6000,
   NRGRI(1096)=6000,
   NRGRI(1097)=6000,
   NRGRI(1098)=6000,
   NRGRI(1099)=6000,
   NRGRI(1100)=6000,
   NRGRI(1101)=6000,
   NRGRI(1102)=6000,
   NRGRI(1103)=6000,
   NRGRI(1104)=6000,
   NRGRI(1105)=6000,
   NRGRI(1106)=6000,
   NRGRI(1107)=6075,
   NRGRI(1108)=6075,
   NRGRI(1109)=6075,
   NRGRI(1110)=6075,
   NRGRI(1111)=6075,
   NRGRI(1112)=6075,
   NRGRI(1113)=6075,
   NRGRI(1114)=6075,
   NRGRI(1115)=6075,
   NRGRI(1116)=6075,
   NRGRI(1117)=6075,
   NRGRI(1118)=6075,
   NRGRI(1119)=6075,
   NRGRI(1120)=6075,
   NRGRI(1121)=6075,
   NRGRI(1122)=6075,
   NRGRI(1123)=6075,
   NRGRI(1124)=6075,
   NRGRI(1125)=6075,
   NRGRI(1126)=6075,
   NRGRI(1127)=6075,
   NRGRI(1128)=6075,
   NRGRI(1129)=6144,
   NRGRI(1130)=6144,
   NRGRI(1131)=6144,
   NRGRI(1132)=6144,
   NRGRI(1133)=6144,
   NRGRI(1134)=6144,
   NRGRI(1135)=6144,
   NRGRI(1136)=6144,
   NRGRI(1137)=6144,
   NRGRI(1138)=6144,
   NRGRI(1139)=6144,
   NRGRI(1140)=6144,
   NRGRI(1141)=6144,
   NRGRI(1142)=6144,
   NRGRI(1143)=6144,
   NRGRI(1144)=6144,
   NRGRI(1145)=6144,
   NRGRI(1146)=6144,
   NRGRI(1147)=6144,
   NRGRI(1148)=6144,
   NRGRI(1149)=6250,
   NRGRI(1150)=6250,
   NRGRI(1151)=6250,
   NRGRI(1152)=6250,
   NRGRI(1153)=6250,
   NRGRI(1154)=6250,
   NRGRI(1155)=6250,
   NRGRI(1156)=6250,
   NRGRI(1157)=6250,
   NRGRI(1158)=6250,
   NRGRI(1159)=6250,
   NRGRI(1160)=6250,
   NRGRI(1161)=6250,
   NRGRI(1162)=6250,
   NRGRI(1163)=6250,
   NRGRI(1164)=6250,
   NRGRI(1165)=6250,
   NRGRI(1166)=6250,
   NRGRI(1167)=6250,
   NRGRI(1168)=6250,
   NRGRI(1169)=6250,
   NRGRI(1170)=6250,
   NRGRI(1171)=6250,
   NRGRI(1172)=6250,
   NRGRI(1173)=6250,
   NRGRI(1174)=6250,
   NRGRI(1175)=6250,
   NRGRI(1176)=6250,
   NRGRI(1177)=6250,
   NRGRI(1178)=6250,
   NRGRI(1179)=6250,
   NRGRI(1180)=6250,
   NRGRI(1181)=6250,
   NRGRI(1182)=6400,
   NRGRI(1183)=6400,
   NRGRI(1184)=6400,
   NRGRI(1185)=6400,
   NRGRI(1186)=6400,
   NRGRI(1187)=6400,
   NRGRI(1188)=6400,
   NRGRI(1189)=6400,
   NRGRI(1190)=6400,
   NRGRI(1191)=6400,
   NRGRI(1192)=6400,
   NRGRI(1193)=6400,
   NRGRI(1194)=6400,
   NRGRI(1195)=6400,
   NRGRI(1196)=6400,
   NRGRI(1197)=6400,
   NRGRI(1198)=6400,
   NRGRI(1199)=6400,
   NRGRI(1200)=6400,
   NRGRI(1201)=6400,
   NRGRI(1202)=6400,
   NRGRI(1203)=6400,
   NRGRI(1204)=6400,
   NRGRI(1205)=6400,
   NRGRI(1206)=6400,
   NRGRI(1207)=6400,
   NRGRI(1208)=6400,
   NRGRI(1209)=6400,
   NRGRI(1210)=6400,
   NRGRI(1211)=6400,
   NRGRI(1212)=6400,
   NRGRI(1213)=6400,
   NRGRI(1214)=6400,
   NRGRI(1215)=6400,
   NRGRI(1216)=6400,
   NRGRI(1217)=6400,
   NRGRI(1218)=6400,
   NRGRI(1219)=6400,
   NRGRI(1220)=6400,
   NRGRI(1221)=6400,
   NRGRI(1222)=6400,
   NRGRI(1223)=6400,
   NRGRI(1224)=6400,
   NRGRI(1225)=6400,
   NRGRI(1226)=6400,
   NRGRI(1227)=6400,
   NRGRI(1228)=6400,
   NRGRI(1229)=6400,
   NRGRI(1230)=6400,
   NRGRI(1231)=6480,
   NRGRI(1232)=6480,
   NRGRI(1233)=6480,
   NRGRI(1234)=6480,
   NRGRI(1235)=6480,
   NRGRI(1236)=6480,
   NRGRI(1237)=6480,
   NRGRI(1238)=6480,
   NRGRI(1239)=6480,
   NRGRI(1240)=6480,
   NRGRI(1241)=6480,
   NRGRI(1242)=6480,
   NRGRI(1243)=6480,
   NRGRI(1244)=6480,
   NRGRI(1245)=6480,
   NRGRI(1246)=6480,
   NRGRI(1247)=6480,
   NRGRI(1248)=6480,
   NRGRI(1249)=6480,
   NRGRI(1250)=6480,
   NRGRI(1251)=6480,
   NRGRI(1252)=6480,
   NRGRI(1253)=6480,
   NRGRI(1254)=6480,
   NRGRI(1255)=6480,
   NRGRI(1256)=6480,
   NRGRI(1257)=6480,
   NRGRI(1258)=6480,
   NRGRI(1259)=6561,
   NRGRI(1260)=6561,
   NRGRI(1261)=6561,
   NRGRI(1262)=6561,
   NRGRI(1263)=6561,
   NRGRI(1264)=6561,
   NRGRI(1265)=6561,
   NRGRI(1266)=6561,
   NRGRI(1267)=6561,
   NRGRI(1268)=6561,
   NRGRI(1269)=6561,
   NRGRI(1270)=6561,
   NRGRI(1271)=6561,
   NRGRI(1272)=6561,
   NRGRI(1273)=6561,
   NRGRI(1274)=6561,
   NRGRI(1275)=6561,
   NRGRI(1276)=6561,
   NRGRI(1277)=6561,
   NRGRI(1278)=6561,
   NRGRI(1279)=6561,
   NRGRI(1280)=6561,
   NRGRI(1281)=6561,
   NRGRI(1282)=6561,
   NRGRI(1283)=6561,
   NRGRI(1284)=6561,
   NRGRI(1285)=6561,
   NRGRI(1286)=6561,
   NRGRI(1287)=6561,
   NRGRI(1288)=6750,
   NRGRI(1289)=6750,
   NRGRI(1290)=6750,
   NRGRI(1291)=6750,
   NRGRI(1292)=6750,
   NRGRI(1293)=6750,
   NRGRI(1294)=6750,
   NRGRI(1295)=6750,
   NRGRI(1296)=6750,
   NRGRI(1297)=6750,
   NRGRI(1298)=6750,
   NRGRI(1299)=6750,
   NRGRI(1300)=6750,
   NRGRI(1301)=6750,
   NRGRI(1302)=6750,
   NRGRI(1303)=6750,
   NRGRI(1304)=6750,
   NRGRI(1305)=6750,
   NRGRI(1306)=6750,
   NRGRI(1307)=6750,
   NRGRI(1308)=6750,
   NRGRI(1309)=6750,
   NRGRI(1310)=6750,
   NRGRI(1311)=6750,
   NRGRI(1312)=6750,
   NRGRI(1313)=6750,
   NRGRI(1314)=6750,
   NRGRI(1315)=6750,
   NRGRI(1316)=6750,
   NRGRI(1317)=6750,
   NRGRI(1318)=6750,
   NRGRI(1319)=6750,
   NRGRI(1320)=6750,
   NRGRI(1321)=6750,
   NRGRI(1322)=6750,
   NRGRI(1323)=6750,
   NRGRI(1324)=6750,
   NRGRI(1325)=6750,
   NRGRI(1326)=6750,
   NRGRI(1327)=6750,
   NRGRI(1328)=6750,
   NRGRI(1329)=6750,
   NRGRI(1330)=6750,
   NRGRI(1331)=6750,
   NRGRI(1332)=6750,
   NRGRI(1333)=6750,
   NRGRI(1334)=6750,
   NRGRI(1335)=6750,
   NRGRI(1336)=6750,
   NRGRI(1337)=6750,
   NRGRI(1338)=6750,
   NRGRI(1339)=6750,
   NRGRI(1340)=6750,
   NRGRI(1341)=6750,
   NRGRI(1342)=6750,
   NRGRI(1343)=6750,
   NRGRI(1344)=6750,
   NRGRI(1345)=6750,
   NRGRI(1346)=6750,
   NRGRI(1347)=6750,
   NRGRI(1348)=6750,
   NRGRI(1349)=6750,
   NRGRI(1350)=6750,
   NRGRI(1351)=6750,
   NRGRI(1352)=6750,
   NRGRI(1353)=6750,
   NRGRI(1354)=6750,
   NRGRI(1355)=6750,
   NRGRI(1356)=6750,
   NRGRI(1357)=6750,
   NRGRI(1358)=6750,
   NRGRI(1359)=6750,
   NRGRI(1360)=6750,
   NRGRI(1361)=6750,
   NRGRI(1362)=6750,
   NRGRI(1363)=6750,
   NRGRI(1364)=6750,
   NRGRI(1365)=6912,
   NRGRI(1366)=6912,
   NRGRI(1367)=6912,
   NRGRI(1368)=6912,
   NRGRI(1369)=6912,
   NRGRI(1370)=6912,
   NRGRI(1371)=6912,
   NRGRI(1372)=6912,
   NRGRI(1373)=6912,
   NRGRI(1374)=6912,
   NRGRI(1375)=6912,
   NRGRI(1376)=6912,
   NRGRI(1377)=6912,
   NRGRI(1378)=6912,
   NRGRI(1379)=6912,
   NRGRI(1380)=6912,
   NRGRI(1381)=6912,
   NRGRI(1382)=6912,
   NRGRI(1383)=6912,
   NRGRI(1384)=6912,
   NRGRI(1385)=6912,
   NRGRI(1386)=6912,
   NRGRI(1387)=6912,
   NRGRI(1388)=6912,
   NRGRI(1389)=6912,
   NRGRI(1390)=6912,
   NRGRI(1391)=6912,
   NRGRI(1392)=6912,
   NRGRI(1393)=6912,
   NRGRI(1394)=6912,
   NRGRI(1395)=6912,
   NRGRI(1396)=6912,
   NRGRI(1397)=6912,
   NRGRI(1398)=6912,
   NRGRI(1399)=6912,
   NRGRI(1400)=6912,
   NRGRI(1401)=6912,
   NRGRI(1402)=6912,
   NRGRI(1403)=6912,
   NRGRI(1404)=6912,
   NRGRI(1405)=6912,
   NRGRI(1406)=6912,
   NRGRI(1407)=6912,
   NRGRI(1408)=6912,
   NRGRI(1409)=6912,
   NRGRI(1410)=6912,
   NRGRI(1411)=6912,
   NRGRI(1412)=6912,
   NRGRI(1413)=6912,
   NRGRI(1414)=6912,
   NRGRI(1415)=6912,
   NRGRI(1416)=6912,
   NRGRI(1417)=6912,
   NRGRI(1418)=6912,
   NRGRI(1419)=6912,
   NRGRI(1420)=6912,
   NRGRI(1421)=6912,
   NRGRI(1422)=6912,