&NAMAATESTPROG
  NFLDUA=9,
  NFLDSU=0,
  NSMAX=674,
  NMSMAX=624,
  NDGLG=2700,
  NFLEVG=120,
  NDLON=2500,
  NPRINTLEV=1,
  LELAM=.TRUE.,
/
&NAMTRANS
/
&NAMPAR0
/
&NAMPAR1
  LEQ_REGIONS=.FALSE.,
/
&NAMRGRI
/

