&NAMAATESTPROG
  NFLDUA=9,
  NFLDSU=0,
  NSMAX=767,
  NMSMAX=719,
  NDGLG=1536,
  NFLEVG=90,
  NDLON=1440,
  NPRINTLEV=1,
  LELAM=.TRUE.,
/
&NAMTRANS
/
&NAMPAR0
/
&NAMPAR1
  LEQ_REGIONS=.FALSE.,
/
&NAMRGRI
/

