&NAMAATESTPROG
  NFLDUA=9,
  NFLDSU=0,
  NSMAX=665,
  NMSMAX=623,
  NDGLG=2662,
  NFLEVG=120,
  NDLON=2496,
  NPRINTLEV=1,
  LELAM=.TRUE.,
/
&NAMTRANS
/
&NAMPAR0
/
&NAMPAR1
  LEQ_REGIONS=.FALSE.,
/
&NAMRGRI
/

